examples/13NodeIEEE/OpenDSS files/IEEE13Nodeckt_VLN_elem.Txt

NODE-GROUND VOLTAGES BY CIRCUIT ELEMENT

Power Delivery Elements

Bus  (node ref)  Phase    Magnitude, kV (pu)    Angle

ELEMENT = "Vsource.SOURCE"
650   (  1)    1           2.5217 (    1.05) /_   30.0
650   (  2)    2           2.5217 (    1.05) /_  -90.0
650   (  3)    3           2.5217 (    1.05) /_  150.0
------------
650   (  0)    0                0 (       0) /_    0.0
650   (  0)    0                0 (       0) /_    0.0
650   (  0)    0                0 (       0) /_    0.0

ELEMENT = "Transformer.XFM1"
633   (  4)    1           2.4396 (   1.016) /_   28.0
633   (  5)    2           2.5242 (   1.051) /_  -91.5
633   (  6)    3           2.4564 (   1.023) /_  149.4
633   (  0)    0                0 (       0) /_    0.0
------------
634   (  7)    1          0.28149 (   1.016) /_   28.0
634   (  8)    2          0.29125 (   1.051) /_  -91.5
634   (  9)    3          0.28343 (   1.023) /_  149.4
634   (  0)    0                0 (       0) /_    0.0

ELEMENT = "Capacitor.CAP1"
675   ( 18)    1           2.3498 (  0.9784) /_   25.1
675   ( 19)    2            2.584 (   1.076) /_  -92.7
675   ( 20)    3          0.51286 (  0.2135) /_  -20.4
------------
675   (  0)    0                0 (       0) /_    0.0
675   (  0)    0                0 (       0) /_    0.0
675   (  0)    0                0 (       0) /_    0.0

ELEMENT = "Capacitor.CAP2"
611   ( 21)    3           2.4137 (   1.005) /_  149.1
------------
611   (  0)    0                0 (       0) /_    0.0

ELEMENT = "Line.650632"
650   (  1)    1           2.5217 (    1.05) /_   30.0
650   (  2)    2           2.5217 (    1.05) /_  -90.0
650   (  3)    3           2.5217 (    1.05) /_  150.0
------------
632   ( 26)    1           2.4445 (   1.018) /_   28.0
632   ( 27)    2           2.5273 (   1.052) /_  -91.5
632   ( 28)    3           2.4606 (   1.024) /_  149.4

ELEMENT = "Line.632670"
632   ( 26)    1           2.4445 (   1.018) /_   28.0
632   ( 27)    2           2.5273 (   1.052) /_  -91.5
632   ( 28)    3           2.4606 (   1.024) /_  149.4
------------
670   ( 23)    1           2.4245 (   1.009) /_   27.3
670   ( 24)    2           2.5385 (   1.057) /_  -91.7
670   ( 25)    3           2.4445 (   1.018) /_  149.3

ELEMENT = "Line.670671"
670   ( 23)    1           2.4245 (   1.009) /_   27.3
670   ( 24)    2           2.5385 (   1.057) /_  -91.7
670   ( 25)    3           2.4445 (   1.018) /_  149.3
------------
671   ( 10)    1           2.3833 (  0.9923) /_   25.8
671   ( 11)    2           2.5654 (   1.068) /_  -92.2
671   ( 12)    3           2.4183 (   1.007) /_  149.3

ELEMENT = "Line.671680"
671   ( 10)    1           2.3833 (  0.9923) /_   25.8
671   ( 11)    2           2.5654 (   1.068) /_  -92.2
671   ( 12)    3           2.4183 (   1.007) /_  149.3
------------
680   ( 29)    1           2.3833 (  0.9923) /_   25.8
680   ( 30)    2           2.5654 (   1.068) /_  -92.2
680   ( 31)    3           2.4183 (   1.007) /_  149.3

ELEMENT = "Line.632633"
632   ( 26)    1           2.4445 (   1.018) /_   28.0
632   ( 27)    2           2.5273 (   1.052) /_  -91.5
632   ( 28)    3           2.4606 (   1.024) /_  149.4
------------
633   (  4)    1           2.4396 (   1.016) /_   28.0
633   (  5)    2           2.5242 (   1.051) /_  -91.5
633   (  6)    3           2.4564 (   1.023) /_  149.4

ELEMENT = "Line.632645"
632   ( 28)    3           2.4606 (   1.024) /_  149.4
632   ( 27)    2           2.5273 (   1.052) /_  -91.5
------------
645   ( 34)    3           2.4573 (   1.023) /_  149.5
645   ( 13)    2           2.5121 (   1.046) /_  -91.6

ELEMENT = "Line.645646"
645   ( 34)    3           2.4573 (   1.023) /_  149.5
645   ( 13)    2           2.5121 (   1.046) /_  -91.6
------------
646   ( 15)    3           2.4538 (   1.022) /_  149.5
646   ( 14)    2           2.5092 (   1.045) /_  -91.7

ELEMENT = "Line.692675"
692   ( 17)    1           2.3618 (   8.522) /_   25.2
692   ( 35)    2           2.5797 (   9.309) /_  -92.4
692   ( 16)    3          0.51872 (   1.872) /_  -19.9
------------
675   ( 18)    1           2.3498 (  0.9784) /_   25.1
675   ( 19)    2            2.584 (   1.076) /_  -92.7
675   ( 20)    3          0.51286 (  0.2135) /_  -20.4

ELEMENT = "Line.671684"
671   ( 10)    1           2.3833 (  0.9923) /_   25.8
671   ( 12)    3           2.4183 (   1.007) /_  149.3
------------
684   ( 32)    1           2.3799 (  0.9909) /_   25.8
684   ( 33)    3            2.416 (   1.006) /_  149.2

ELEMENT = "Line.684611"
684   ( 33)    3            2.416 (   1.006) /_  149.2
------------
611   ( 21)    3           2.4137 (   1.005) /_  149.1

ELEMENT = "Line.684652"
684   ( 32)    1           2.3799 (  0.9909) /_   25.8
------------
652   ( 22)    1           2.3706 (   0.987) /_   25.9

ELEMENT = "Line.671692"
671   ( 10)    1           2.3833 (  0.9923) /_   25.8
671   ( 11)    2           2.5654 (   1.068) /_  -92.2
------------
692   ( 17)    1           2.3618 (   8.522) /_   25.2
692   ( 35)    2           2.5797 (   9.309) /_  -92.4

= = = = = = = = = = = = = = = = = = =  = = = = = = = = = = =  = =

Power Conversion Elements

Bus  (node ref)  Phase    Magnitude, kV (pu)    Angle

ELEMENT = "Load.671"
671   ( 10)    1           2.3833 (  0.9923) /_   25.8
671   ( 11)    2           2.5654 (   1.068) /_  -92.2
671   ( 12)    3           2.4183 (   1.007) /_  149.3
671   (  0)    0                0 (       0) /_    0.0

ELEMENT = "Load.633A"
633   (  4)    1           2.4396 (   1.016) /_   28.0
633   (  0)    0                0 (       0) /_    0.0

ELEMENT = "Load.633B"
633   (  5)    2           2.5242 (   1.051) /_  -91.5
633   (  0)    0                0 (       0) /_    0.0

ELEMENT = "Load.633C"
633   (  6)    3           2.4564 (   1.023) /_  149.4
633   (  0)    0                0 (       0) /_    0.0

ELEMENT = "Load.645"
645   ( 13)    2           2.5121 (   1.046) /_  -91.6
645   (  0)    0                0 (       0) /_    0.0

ELEMENT = "Load.646"
646   ( 14)    2           2.5092 (   1.045) /_  -91.7
646   ( 15)    3           2.4538 (   1.022) /_  149.5

ELEMENT = "Load.692"
692   ( 16)    3          0.51872 (   1.872) /_  -19.9
692   ( 17)    1           2.3618 (   8.522) /_   25.2

ELEMENT = "Load.675A"
675   ( 18)    1           2.3498 (  0.9784) /_   25.1
675   (  0)    0                0 (       0) /_    0.0

ELEMENT = "Load.675B"
675   ( 19)    2            2.584 (   1.076) /_  -92.7
675   (  0)    0                0 (       0) /_    0.0

ELEMENT = "Load.675C"
675   ( 20)    3          0.51286 (  0.2135) /_  -20.4
675   (  0)    0                0 (       0) /_    0.0

ELEMENT = "Load.611"
611   ( 21)    3           2.4137 (   1.005) /_  149.1
611   (  0)    0                0 (       0) /_    0.0

ELEMENT = "Load.652"
652   ( 22)    1           2.3706 (   0.987) /_   25.9
652   (  0)    0                0 (       0) /_    0.0

ELEMENT = "Load.670A"
670   ( 23)    1           2.4245 (   1.009) /_   27.3
670   (  0)    0                0 (       0) /_    0.0

ELEMENT = "Load.670B"
670   ( 24)    2           2.5385 (   1.057) /_  -91.7
670   (  0)    0                0 (       0) /_    0.0

ELEMENT = "Load.670C"
670   ( 25)    3           2.4445 (   1.018) /_  149.3
670   (  0)    0                0 (       0) /_    0.0

ELEMENT = "Load.650"
650   (  1)    1           2.5217 (    1.05) /_   30.0
650   (  2)    2           2.5217 (    1.05) /_  -90.0
650   (  3)    3           2.5217 (    1.05) /_  150.0
650   (  0)    0                0 (       0) /_    0.0

ELEMENT = "Load.632"
632   ( 26)    1           2.4445 (   1.018) /_   28.0
632   ( 27)    2           2.5273 (   1.052) /_  -91.5
632   ( 28)    3           2.4606 (   1.024) /_  149.4
632   (  0)    0                0 (       0) /_    0.0

ELEMENT = "Load.680"
680   ( 29)    1           2.3833 (  0.9923) /_   25.8
680   ( 30)    2           2.5654 (   1.068) /_  -92.2
680   ( 31)    3           2.4183 (   1.007) /_  149.3
680   (  0)    0                0 (       0) /_    0.0

ELEMENT = "Load.684"
684   ( 32)    1           2.3799 (  0.9909) /_   25.8
684   ( 33)    3            2.416 (   1.006) /_  149.2

ELEMENT = "PVSystem.PV_611_3"
611   ( 21)    3           2.4137 (   1.005) /_  149.1
611   (  0)    0                0 (       0) /_    0.0

